Version 4
SHEET 1 880 680
WIRE 256 -48 256 -96
WIRE 256 64 256 32
WIRE 224 112 192 112
WIRE 240 112 224 112
WIRE 192 176 112 176
WIRE 272 176 192 176
WIRE 128 240 112 240
WIRE 144 240 128 240
WIRE 320 240 272 240
WIRE 48 368 48 288
WIRE 160 368 48 368
WIRE 208 368 208 288
WIRE 208 368 160 368
WIRE 160 384 160 368
FLAG 160 384 0
FLAG 256 -96 0
FLAG 128 240 in1
FLAG 224 112 out
FLAG 320 240 in2
SYMBOL voltage 256 48 R180
WINDOW 0 24 96 Left 2
WINDOW 3 -506 57 Left 2
WINDOW 123 0 0 Left 0
WINDOW 39 0 0 Left 0
SYMATTR InstName V1
SYMATTR Value PWL(0 0 0.49m 0 0.50m .72 .5m .72 1.51m 0)
SYMBOL MemSim+SDC_variation 144 64 R0
SYMATTR InstName X4
SYMBOL MemSim+SDC_variation 320 288 R180
SYMATTR InstName X5
SYMBOL MemSim+SDC_variation 160 288 R180
SYMATTR InstName X6
TEXT 40 464 Left 2 !.tran 0 1.5ms
TEXT 40 424 Left 2 !.step param run 1 100 1
